40
        -936.640904470987
  C           5.69098351069328      0.16277276768905      0.38758263277947
  C           4.22271505258218      0.04904549724922      0.08128421012230
  C           3.72668828106449     -1.12128471848013     -0.52832636383578
  C           2.38451521450147     -1.25519119368405     -0.82104699348443
  C           1.59389453806998     -0.17081362433222     -0.47714999095215
  C           2.15846158031495      0.95812435205132      0.12764302899224
  N           3.45498449588248      1.07973626178069      0.41002896436191
  N           1.17933585831089      1.89502617671911      0.38007707462503
  C           0.06986446775920      1.35539556507397     -0.05270648111330
  C          -1.23801047824059      2.02825586511575      0.02188714489163
  C          -1.28610057963660      3.40338535297466     -0.19698570488656
  C          -2.49148270693435      4.07941333561995     -0.11333326534394
  C          -3.65754337268401      3.39166429070844      0.19652944845256
  C          -3.61221735152991      2.02574089736381      0.43192823626130
  C          -2.40712305855837      1.34399370976630      0.34711088554557
  N           0.24716782647204      0.09993070128746     -0.59427527960516
  C          -0.69787597401210     -0.74229127025214     -1.29135670434170
  C          -1.21345855562363     -1.90851302551435     -0.47440421271331
  C          -2.07352079118384     -2.82090291499074     -1.07963276413927
  C          -2.57964005120394     -3.89301593650734     -0.36423914685111
  C          -2.22844795371103     -4.06759891181270      0.96875484022736
  C          -1.37102337247094     -3.16422881955551      1.57491141365959
  C          -0.86433187628033     -2.08755806960515      0.85660222072517
  H           6.28675302546686      0.09207235315399     -0.52428483802145
  H           6.01491796862384     -0.63856371901386      1.05407837270042
  H           5.88946610619663      1.11929226184502      0.86406020634314
  H           4.41634491417335     -1.92221189537974     -0.76094008095577
  H           1.98478210067698     -2.15265074044477     -1.27682869496018
  H          -0.36681842328753      3.92634476186670     -0.42354840451668
  H          -2.52167837354820      5.14691846637338     -0.28799182605902
  H          -4.59869430792370      3.92186320413247      0.26300103105161
  H          -4.51452584740704      1.48837470485027      0.69315189447128
  H          -2.37710552345905      0.28395742092423      0.56682560288616
  H          -0.20833208991094     -1.11745464739760     -2.19400490250200
  H          -1.53016949550151     -0.12045330628644     -1.62160982092791
  H          -2.35013263622054     -2.68779422904399     -2.11998541239484
  H          -3.24881042624476     -4.59414045367854     -0.84588763745433
  H          -2.62214131015603     -4.90519632194558      1.52929893892294
  H          -1.09080015254918     -3.29340413160100      2.61225501750296
  H          -0.19325587771048     -1.38705368291993      1.33827219013623
40
        -936.640898772471
  C           5.70204991155367      0.13813055940405      0.46200472067269
  C           4.23709693387124      0.03070263077286      0.13825785920581
  C           3.74712567339173     -1.12723406527683     -0.49904938400538
  C           2.40755121605046     -1.25580583489292     -0.80618598558366
  C           1.61345961507732     -0.17878657320280     -0.44766831112328
  C           2.17214951390542      0.93805840263585      0.18436079328356
  N           3.46601238761166      1.05448173001517      0.48065343817764
  N           1.19052440372369      1.86992089156402      0.44607630302561
  C           0.08535150176824      1.33889405557084     -0.00799510445483
  C          -1.22303209827701      2.01060137978857      0.06774456136349
  C          -1.26742534521924      3.39072111591991     -0.11906358846324
  C          -2.47305181728166      4.06587596142475     -0.03352246580389
  C          -3.64330226368549      3.37233553971278      0.24643408502190
  C          -3.60182946662606      2.00126678438243      0.44992001826522
  C          -2.39637786604897      1.32027556059576      0.36298618779049
  N           0.26761746404110      0.09414904047063     -0.57192022477588
  C          -0.66945784511699     -0.73015544774339     -1.30040703101449
  C          -1.20256176021433     -1.91062376884943     -0.51583892074118
  C          -2.06680839236717     -2.79923552433883     -1.14962504135053
  C          -2.58859703037598     -3.88365142921751     -0.46469438360637
  C          -2.24916031451444     -4.09444437117448      0.86606044310241
  C          -1.38757971548168     -3.21479254570964      1.50057012847446
  C          -0.86508083239863     -2.12579865632097      0.81284669260247
  H           6.01160402378199     -0.65896388691218      1.14044709915674
  H           5.90006141706558      1.09734735205561      0.93320341681622
  H           6.30947317157290      0.05482083960682     -0.44093980292045
  H           4.43887325303794     -1.92322459154904     -0.74209620834862
  H           2.01253748399663     -2.14400435348689     -1.28369305871768
  H          -0.34500089684429      3.91756430243328     -0.32251808545744
  H          -2.50025123014632      5.13724245250112     -0.18322305938630
  H          -4.58468581763281      3.90190024056495      0.31448615896117
  H          -4.50745406208255      1.45869535540284      0.68787055968647
  H          -2.37028603911218      0.25543268133501      0.55836633215194
  H          -0.16666590400393     -1.08913747698792     -2.20240929292532
  H          -1.49401379516675     -0.09846221400900     -1.63150440685877
  H          -2.33457050600285     -2.63745566425002     -2.18820866445693
  H          -3.26099486355767     -4.56601923709117     -0.96827223925425
  H          -2.65525179918017     -4.94157276560209      1.40292191806946
  H          -1.11654112846863     -3.37220855815915      2.53644239840526
  H          -0.19117197424377     -1.44384223218299      1.31662740491548
40
        -936.639214225043
  C           5.42385226612405     -0.24491642053022      0.61386453111357
  C           3.98594077509892     -0.23153730680502      0.17489440168190
  C           3.46335406885505     -1.28927852066020     -0.59010127392940
  C           2.14338452001320     -1.28328016673947     -1.00355284088846
  C           1.40825681125936     -0.17714298264035     -0.61906070267423
  C           1.99532749299411      0.82805819558739      0.16119175709644
  N           3.26442223893667      0.81871787667278      0.55352574830202
  N           1.06094739583936      1.80356139077557      0.45111737267123
  C          -0.03745482356867      1.40374849884123     -0.13037901578026
  C          -1.30218289659121      2.15839138949111     -0.07572629312772
  C          -1.71349643818317      2.68725557364698      1.14430905364069
  C          -2.88637742366446      3.42031280067516      1.22454333145547
  C          -3.65178784610926      3.63834267098421      0.08719666910247
  C          -3.23585582324917      3.12993204800050     -1.13485473078596
  C          -2.06400992621039      2.39344571072240     -1.21750980766174
  N           0.09738329049766      0.21204353273454     -0.81328614851988
  C          -0.94475913340464     -0.67464613336294     -1.29457009464334
  C          -1.12958726468564     -1.89248547432043     -0.41557905463268
  C          -1.46454233030384     -3.11410579299277     -0.98465454139909
  C          -1.67221269033166     -4.23037320497416     -0.18637200701944
  C          -1.53850109883936     -4.13242475153849      1.19025738223554
  C          -1.19732096592196     -2.91492253353438      1.76353461439898
  C          -0.99470815497148     -1.80015321571115      0.96501661743249
  H           5.94937017411299      0.61601266905083      0.19958729672440
  H           5.93352445919203     -1.15274703529695      0.29449545905531
  H           5.48419805059857     -0.16955728755408      1.69961347464151
  H           4.10829119878105     -2.11773221432286     -0.84999747815600
  H           1.72281548400549     -2.09779636862137     -1.57955893215817
  H          -1.09805821942680      2.52304169162662      2.01887938055099
  H          -3.20265068067703      3.82545886451052      2.17676708223536
  H          -4.56697214903292      4.21228197499525      0.15144193999515
  H          -3.81862847351520      3.31564049457947     -2.02753007775341
  H          -1.72444262789994      2.02503946460803     -2.17790602249396
  H          -0.70831831144558     -0.98459145532230     -2.31516132167043
  H          -1.87263895141206     -0.10702340421162     -1.33595140166065
  H          -1.55974507712303     -3.19566764228648     -2.06188483714504
  H          -1.93056847567935     -5.17765548534418     -0.64165937147883
  H          -1.69309991057333     -5.00251982888042      1.81470450455820
  H          -1.08487716714428     -2.83358485151738      2.83683866556568
  H          -0.71861986354407     -0.85485311563535      1.41835403962131
40
        -936.639049862342
  C           5.39243865234675     -0.27078579006517      0.97078086368604
  C           3.98411680888936     -0.22045506198897      0.44502774659902
  C           3.52584362022739     -1.23453705454318     -0.42019376410344
  C           2.24028653335232     -1.21360585468401     -0.92104186065935
  C           1.46575440243436     -0.13729216624640     -0.51882343681759
  C           1.98544140404481      0.82029102924008      0.35832973230255
  N           3.22860120747318      0.79690699318995      0.83688557197068
  N           1.02352780468271      1.76826748484978      0.64462574295335
  C          -0.02943657220472      1.39734142837892     -0.03332516910138
  C          -1.30380489585381      2.13741522041148     -0.01682003812330
  C          -1.99161929698551      2.43867609470067     -1.18960858084568
  C          -3.17486035098882      3.15972847027336     -1.13904641348448
  C          -3.67621599790336      3.58690288245095      0.08202696269747
  C          -2.98486003770220      3.30290342762259      1.25178250915746
  C          -1.80096767607319      2.58491469677176      1.20386379722264
  N           0.16614122990892      0.25141975484162     -0.77653635861068
  C          -0.82904076955232     -0.60783246226584     -1.38870049026302
  C          -1.05505339680594     -1.88825811931268     -0.61458200664276
  C          -0.98834370597630     -1.90338267999576      0.77378711610392
  C          -1.23061728897905     -3.07590350441205      1.47271029749221
  C          -1.54356730264374     -4.24394804286631      0.79101904097775
  C          -1.60913901304371     -4.23465753701536     -0.59408866774343
  C          -1.36189460856624     -3.06107255605460     -1.29230317926567
  H           6.11574661546314     -0.22547992032000      0.15453756376967
  H           5.57295865398562     -1.19761353517722      1.51820428017022
  H           5.56141291953954      0.57126873027995      1.63698736109042
  H           4.19884235348892     -2.03978353537783     -0.68460383445440
  H           1.86875398174825     -1.99365402738881     -1.57343612062127
  H          -1.58535962511895      2.13475780187087     -2.14668912495964
  H          -3.69962879561433      3.39724079816115     -2.05512238038772
  H          -4.60018640159596      4.14890153435286      0.12101109059710
  H          -3.36785552808282      3.64447221737562      2.20443578866568
  H          -1.24275090661429      2.36984944885756      2.10535278864373
  H          -0.52164081339958     -0.84069757076237     -2.41093765129172
  H          -1.76016372448274     -0.04743142872912     -1.45094237208159
  H          -0.73404397746249     -0.99736828973520      1.31200851606590
  H          -1.17130660036301     -3.07783168764023      2.55331408060711
  H          -1.72943593181862     -5.15901606318855      1.33782456780595
  H          -1.84525883764134     -5.14283487762041     -1.13336955073434
  H          -1.40415467291220     -3.05853000213906     -2.37596070388739
40
        -936.639005697771
  C           5.80956968261977      0.34483460938187      0.89476777453203
  C           4.42230186797304      0.19205919410973      0.33394270133087
  C           4.16974739922270     -0.78497086594364     -0.64905676515031
  C           2.90781620948367     -0.94305020339806     -1.18587516659915
  C           1.93709579161783     -0.08734577174267     -0.69038870769856
  C           2.26421828172596      0.85093677361417      0.29805687574168
  N           3.48558528458879      1.00379050353316      0.80638407934597
  N           1.14184865337361      1.57160931058863      0.65605284839744
  C           0.18365573481820      1.08974783111875     -0.08614437452486
  C          -1.22452216665723      1.51996634657796     -0.02533563611616
  C          -1.91550662333214      1.88201973162168     -1.17736490714236
  C          -3.25034047980203      2.24897528027115     -1.10226072164801
  C          -3.90024269713903      2.25333335669306      0.12387858173416
  C          -3.20841329504923      1.90757738983542      1.27671689035965
  C          -1.87265912434192      1.54623857541896      1.20483408945251
  N           0.59138847010363      0.09155827545635     -0.94588554840832
  C          -0.27778940959166     -0.86671719648995     -1.61484938843644
  C          -1.18942749807519     -1.58030720364523     -0.64275960954213
  C          -2.54813158833770     -1.68785220700118     -0.90193274514060
  C          -3.38878592436886     -2.31983932872374      0.00424908164769
  C          -2.87312048096894     -2.84383323652819      1.17936559830801
  C          -1.51396237955965     -2.73545898159328      1.44528323029758
  C          -0.67620123337308     -2.10674460108671      0.53848904368373
  H           5.81147005396857      1.12689484507143      1.64961106171489
  H           6.52112819135704      0.61012735934391      0.11068824166295
  H           6.15348905618129     -0.58623683418119      1.34875824111567
  H           4.98403456478335     -1.41470196458811     -0.98313618781941
  H           2.70558604843314     -1.68918851108097     -1.94413583160976
  H          -1.40132726179485      1.89749139532540     -2.13092449733579
  H          -3.78131600850212      2.53879295177305     -1.99978931830939
  H          -4.94360523651473      2.53515516669603      0.18197668517756
  H          -3.71168066552971      1.91813824100347      2.23467291622832
  H          -1.32060494125205      1.27367784477209      2.09456801596136
  H           0.37319833898838     -1.57829022108119     -2.12415923645601
  H          -0.86868665557380     -0.36947931239689     -2.38307324332675
  H          -2.95646146530142     -1.25381482015647     -1.80738902839120
  H          -4.44873336993495     -2.38960986076296     -0.20316025383975
  H          -3.52806741704659     -3.32938733269762      1.89098791662668
  H          -1.10701126736548     -3.13777609931070      2.36394611405193
  H           0.38164927127342     -2.00852525799752      0.75695940892433
40
        -936.638973555019
  C           5.89901022574365      0.08719781244799      0.50221040284668
  C           4.47108442751969     -0.00760049581821      0.03910926127354
  C           4.11294144344555     -0.96485107879219     -0.93030682502885
  C           2.81089413595865     -1.07164003632910     -1.37632935797065
  C           1.91026042439222     -0.18623960995804     -0.80636428481855
  C           2.34178474479808      0.72954542619898      0.16304602615421
  N           3.60111011298631      0.83288706375768      0.58346456133419
  N           1.27547311509447      1.48752231678010      0.60533249741638
  C           0.24966494914924      1.04896290305791     -0.07025569763807
  C          -1.13341587467824      1.53043014716536      0.09376908013468
  C          -1.69114931254583      1.56813364037799      1.36720485730100
  C          -3.00354799208738      1.97887886486709      1.53681376767697
  C          -3.76154349076814      2.36321802596544      0.43909255990655
  C          -3.20099021244810      2.34713811079792     -0.83027244234433
  C          -1.89006714290037      1.93043993949059     -1.00315763093969
  N           0.55756440295199      0.04489756981330     -0.96403458617383
  C          -0.39181266430633     -0.87251975647529     -1.57898381796184
  C          -1.26483749963829     -1.55821427283115     -0.55308727537445
  C          -2.63996674317514     -1.61750540887222     -0.72703232036121
  C          -3.44381594081058     -2.22557609775524      0.22766249037670
  C          -2.87417758019472     -2.77420796667192      1.36599735035604
  C          -1.49804789870946     -2.71429686429717      1.54652467644569
  C          -0.69731415072004     -2.10919788843635      0.59154321901461
  H           6.56926942670238      0.29212431278587     -0.33440171129200
  H           6.22404177248576     -0.84810917000726      0.96166172290933
  H           5.99124428324573      0.88747294631717      1.23190939794825
  H           4.87747790567335     -1.62015041287538     -1.32689208741376
  H           2.52846987631307     -1.80235625485982     -2.12396157664577
  H          -1.08838346976437      1.26572708363445      2.21331319197497
  H          -3.43684427743124      1.99823813852406      2.52824997701389
  H          -4.78648053709187      2.68374782331549      0.57391424085425
  H          -3.78265875057186      2.66639471249472     -1.68537838103712
  H          -1.44466367619505      1.93623066176449     -1.99081493963548
  H           0.19492423745936     -1.60475974211167     -2.13495131553223
  H          -1.01187077588584     -0.34602949546629     -2.30362247965970
  H          -3.08897110013068     -1.16474216016463     -1.60359144025685
  H          -4.51640720598582     -2.25763487255496      0.08660569946642
  H          -3.49958261166341     -3.24141416519875      2.11547265880823
  H          -1.04878066215733     -3.13618678313500      2.43622963873936
  H           0.37495755874058     -2.04852731074593      0.74330246893244
