29
        -758.734568529909
  O           0.83986844881922     -2.49036386794977     -0.41644545146917
  C           0.90481481768775     -1.42634191008698      0.16345312596356
  N          -0.10457719371451     -0.91027718669991      0.89846361932469
  N          -1.32594605510480     -1.57841807659009      1.02858171408442
  C          -2.14617543159808     -1.42449559251771     -0.18205122220930
  C          -2.58979098726015      0.00561378144138     -0.35167401766396
  C          -3.24467971538775      0.66790677804747      0.68374792698377
  C          -3.65207041090669      1.98309205344859      0.53132570377200
  C          -3.40947726011435      2.65535630777001     -0.66074589896278
  C          -2.75540196547626      2.00465881793641     -1.69449494983983
  C          -2.34533922011770      0.68649434686336     -1.53648347440589
  C           2.14886519746173     -0.54978377209370      0.14107552616292
  N           3.16266156416478     -0.97555137601063     -0.59760493539309
  C           4.24054136101276     -0.19907169729077     -0.61358561931721
  C           4.31189070944328      0.98731556340758      0.09713517122741
  C           3.19372707756682      1.33316849746313      0.83425390034331
  N           2.10716933544872      0.56930899153045      0.86100820745827
  H           0.01849793746827     -0.04593682614023      1.39798394044301
  H          -1.10800771278106     -2.56183581233919      1.15315045471985
  H          -3.01330230696412     -2.07477737788497     -0.04440534229886
  H          -1.61405031685318     -1.75954011487684     -1.07723139456868
  H          -3.42364208439371      0.14383622274285      1.61477459823150
  H          -4.16191888108198      2.48716746477012      1.34255434421325
  H          -3.72820986600824      3.68287989931877     -0.77969487946314
  H          -2.55797199111376      2.52282055946130     -2.62419205916454
  H          -1.82573041561192      0.18053916995912     -2.34209942859974
  H           5.07304759510095     -0.54263441117091     -1.21754289717383
  H           5.19391867821085      1.61053287445828      0.07708678749296
  H           3.16148788050311      2.24460690113286      1.42016427300909
29
        -758.734565820368
  O           0.89665846677611     -2.50366032638273     -0.01379336825938
  C           0.91704017842396     -1.36549717255958      0.40650642162028
  N          -0.12243955169844     -0.78186346730691      1.04246629900166
  N          -1.33371732062494     -1.45420946496163      1.23177557673502
  C          -2.11249025408565     -1.50553066539003     -0.01453435437654
  C          -2.56825412119840     -0.12717523284986     -0.41886234517578
  C          -3.25996216894276      0.67950688092592      0.48130317662943
  C          -3.67590128739606      1.94857914976756      0.11287107340194
  C          -3.40541454108040      2.42901661407955     -1.16293583588125
  C          -2.71513914959156      1.63365445074360     -2.06340844134618
  C          -2.29641496194216      0.36272769721782     -1.68892202171955
  C           2.13399478521213     -0.46034898849861      0.27714491893233
  N           2.03603080001451      0.75609277069508      0.80913474639558
  C           3.09758539068501      1.54520301645580      0.68595343877560
  C           4.24664913555045      1.12816739544816      0.03872046998547
  C           4.23413643193257     -0.15792180874475     -0.47475481496483
  N           3.18189133258478     -0.96073298999653     -0.36021085555040
  H          -0.04086702655217      0.15539331280014      1.39827566442545
  H          -1.10128330978848     -2.40135303610960      1.51235316825030
  H          -2.97490988712569     -2.14331510553758      0.19328620805237
  H          -1.54374996722475     -1.96434893330514     -0.82849069584996
  H          -3.46043597170910      0.30530714956056      1.47793677693319
  H          -4.21393535497874      2.56623357478848      0.82079885731903
  H          -3.73075131508687      3.42052394738683     -1.45037187257719
  H          -2.49618558423892      2.00240960576676     -3.05734728950169
  H          -1.74806393686479     -0.25541665208205     -2.39050011816960
  H           3.01925695315592      2.53606496362610      1.11854919275797
  H           5.10807290332591      1.77227616939581     -0.06074651061443
  H           5.09438846286855     -0.56230138713318     -0.99663730622885
29
        -758.734552614595
  O           0.78803040890928     -1.50995253186719      2.04931203486029
  C           0.90674228181775     -1.11270339545104      0.90878051903194
  N          -0.04233367778623     -1.26624287122541     -0.04057244259929
  N          -1.25682227943175     -1.89861329886078      0.24198656384706
  C          -2.16418666678774     -1.00051509838165      0.97100697575306
  C          -2.61900029609754      0.13501662454181      0.09071718361204
  C          -3.18250114445154     -0.12233768279556     -1.15656147419473
  C          -3.60196163288543      0.91943101679988     -1.96771897752749
  C          -3.46340625573336      2.23520108597061     -1.54196706723957
  C          -2.90069169395171      2.49981582255662     -0.30375580082840
  C          -2.47794538165184      1.45230024694280      0.50544787768777
  C           2.15653408497527     -0.40221348546003      0.40934453995039
  N           2.17592730012779     -0.05349165889605     -0.87532587823772
  C           3.26649026250115      0.57248252684177     -1.30393615618591
  C           4.32849113349041      0.84933223204817     -0.46208042638568
  C           4.19685945861544      0.43860293016724      0.85391721327203
  N           3.11395658875027     -0.18868798853997      1.29953935376147
  H           0.12669788239101     -0.96342924424590     -0.98476562567243
  H          -1.03990741982299     -2.69462319500490      0.83306279498531
  H          -1.69950849146462     -0.60630822609124      1.87950141140817
  H          -3.01911592958639     -1.61165088560196      1.27004600333974
  H          -3.28019383257970     -1.14862178306225     -1.48917010122610
  H          -4.04010899273964      0.70714932858197     -2.93472215195472
  H          -3.79156518750263      3.04892312361835     -2.17577647646834
  H          -2.78448074124156      3.52195165796456      0.03322533401479
  H          -2.03002274348030      1.66043942694657      1.47037343992325
  H           3.28378890846401      0.85741391850902     -2.34968500211499
  H           5.21364530201137      1.35922728710970     -0.81324663553158
  H           4.98340687664120      0.61654018138486      1.57889243931964
29
        -758.733668793852
  O           0.92577566484493      0.89922846931044     -0.84271645519986
  C           1.29202480476049      0.08310003850028     -0.02288008296657
  N           0.46386423321095     -0.49654911111711      0.87650804147276
  N          -0.87801416123498     -0.11329455924515      0.95803704583710
  C          -1.68004821430781     -0.75253575010072     -0.10368998791835
  C          -2.98063331844773     -0.01302699473679     -0.24433508103883
  C          -4.10593234495770     -0.38845588534121      0.48014403056752
  C          -5.28656975633639      0.33144454179172      0.37099582941709
  C          -5.34928562527406      1.44008817202718     -0.46158381644942
  C          -4.22869406015543      1.82546519234141     -1.18390881212995
  C          -3.05043157816789      1.10130772622874     -1.07520662224777
  C           2.73776786946463     -0.37753912613375      0.09113336214761
  N           3.57773106719747      0.06979318509011     -0.83031448773770
  C           4.83780669924856     -0.33586487955552     -0.71859325364001
  C           5.26044909182018     -1.17436551201364      0.29940386648337
  C           4.29706986477247     -1.57953832365339      1.20512541134798
  N           3.03155798889751     -1.18641340320022      1.10698559881293
  H           0.84307258702344     -1.05661330246347      1.62123947280835
  H          -0.90704553532224      0.89184336871528      0.80789499912752
  H          -1.85359067545412     -1.79062548411205      0.18373159663878
  H          -1.14151501725901     -0.73957527311918     -1.05563080098358
  H          -4.05386191251169     -1.25124798668161      1.13379677811797
  H          -6.15833613820516      0.02780177898082      0.93626946393202
  H          -6.27048052115146      2.00171577932743     -0.54838110445237
  H          -4.27336301769451      2.68852700007546     -1.83561433901053
  H          -2.17138127569060      1.39631979503101     -1.63789032824802
  H           5.52914715527385      0.02557296481511     -1.47173992067156
  H           6.28831761609856     -1.49607388393872      0.38180335149890
  H           4.53905556195773     -2.23618762822244      2.03296208598463
29
        -758.733647623725
  O           0.54898161295146     -1.15691147307740     -0.87417413065775
  C           1.17917922978216     -0.48844959510214     -0.08130103494876
  N           0.60492912810750      0.34933129209915      0.81223218398894
  N          -0.78662265372128      0.43168379909661      0.91672374566631
  C          -1.35141758308204      1.28281503646854     -0.14890597057234
  C          -2.82206016616547      1.00040336259211     -0.27283351731785
  C          -3.76283953464983      1.74645037376579      0.42708989829014
  C          -5.11350072084829      1.44458288907925      0.33207466347913
  C          -5.53439534717512      0.38641806281889     -0.46094369487240
  C          -4.60103024136303     -0.36767644433461     -1.15837140934620
  C          -3.25153638752828     -0.06078414861253     -1.06453729251505
  C           2.69802166423933     -0.52607327131241      0.00250116176280
  N           3.32393928993686     -1.26525595696423     -0.90106383672365
  C           4.64946962407931     -1.29302706750037     -0.81671481354905
  C           5.34640229963542     -0.59587588623840      0.15604837360102
  C           4.58961272305524      0.14323081719714      1.04696638347914
  N           3.26331981737254      0.18430689965766      0.97632123889854
  H           1.16180990959435      0.77664235261081      1.53283992863624
  H          -1.14664056243909     -0.51021948646248      0.78716414297805
  H          -0.85472104439954      1.08640953819568     -1.10357391662288
  H          -1.17877655194533      2.32501428070459      0.12398830371130
  H          -3.43234148348331      2.56923271848137      1.05010137818351
  H          -5.83832076397086      2.03502950472528      0.87773778897317
  H          -6.58814540576710      0.15091842062556     -0.53645842113087
  H          -4.92466813843110     -1.19300883631478     -1.77938145877114
  H          -2.51717922929843     -0.64502098054502     -1.60852908707822
  H           5.16676962047898     -1.89547714969222     -1.55512230487110
  H           6.42442998452212     -0.62703890049485      0.21621883852276
  H           5.05192324631287      0.71950380523300      1.84018453720620
29
        -758.733638849588
  O           0.90596373750870      1.14709835076293      0.55388261896890
  C           1.32539549435718      0.10406473574299      0.09703811234608
  N           0.55674800577024     -0.77480003164170     -0.58671135075068
  N          -0.77930950501211     -0.47833138387802     -0.87197747478847
  C          -1.64220448885113     -0.72689601282052      0.29980637927624
  C          -2.94116527034569      0.00548201025716      0.11377921320636
  C          -3.03209084810424      1.34386975874954      0.48519423216171
  C          -4.20688135700133      2.05253150995484      0.28100600309767
  C          -5.30322463231689      1.42731102021976     -0.29635449808959
  C          -5.21940277116499      0.09378645006413     -0.67117026906396
  C          -4.04177359869079     -0.61121535057782     -0.46935447088777
  C           2.77637729162876     -0.33139431100314      0.23698691167188
  N           3.13448183312977     -1.44184305986281     -0.40420843187849
  C           4.40438701254462     -1.81360411837488     -0.28252592363502
  C           5.30885205373427     -1.08900380249430      0.47226344359607
  C           4.82208181217371      0.04711910962721      1.09701959025082
  N           3.55668484775652      0.43520243139913      0.98410975757256
  H           0.98311390985073     -1.55253111254103     -1.06152259991966
  H          -0.82099269100303      0.51523516718155     -1.08349192018354
  H          -1.15378013168842     -0.38646115347149      1.21734162575818
  H          -1.81059941023754     -1.80227620293176      0.37444643091878
  H          -2.17185050697917      1.82595168118764      0.93705238179691
  H          -4.26804276381942      3.09204061728015      0.57645015179402
  H          -6.22191423434638      1.97790751189074     -0.45263869645404
  H          -6.07215301679129     -0.39740607384315     -1.12205354619540
  H          -3.97339704201096     -1.65115176822231     -0.76640300965008
  H           4.69868041848059     -2.71633024916032     -0.80549456307359
  H           6.34046995058667     -1.39416528770904      0.56929307373920
  H           5.46454990234166      0.67012453481455      1.70933089911489
29
        -758.732780686146
  O          -0.05512617099105     -0.38730082839958      1.66124262954242
  C           0.54228682667631     -0.75538717919312      0.67234164179239
  N           0.06021413843639     -1.66971337139530     -0.20180210317691
  N          -1.14278236384538     -2.33617815975241      0.06782218863563
  C          -2.25601877332077     -1.76834158094700     -0.71610577835599
  C          -2.46047569654109     -0.28551059190500     -0.54304995290506
  C          -3.21877614490657      0.20370149658000      0.51539527511735
  C          -3.34909402201021      1.56702655581887      0.72253300868868
  C          -2.71785116273855      2.46206762572920     -0.13035305204787
  C          -1.96508440950351      1.98610223463825     -1.19310462815692
  C          -1.84144665137473      0.61894036796396     -1.39835907603305
  C           1.92097571994394     -0.23397705320362      0.30006817010735
  N           2.53589415173171     -0.83486846662859     -0.71705360086677
  C           3.74148484617475     -0.37642478028845     -1.03591093609401
  C           4.32822364383673      0.67350387037553     -0.35316636156229
  C           3.59340689361821      1.22290033552263      0.68431881958658
  N           2.38933810955754      0.77399086392364      1.02080332446878
  H           0.69542118875833     -2.10319068911332     -0.85204854600036
  H          -1.32061715143980     -2.17685091370296      1.05685859409228
  H          -3.14711111700003     -2.31913332839527     -0.41094250762018
  H          -2.06980255606586     -2.00429376226649     -1.76528561808689
  H          -3.70402748078882     -0.49198445342119      1.19113960675299
  H          -3.93870173116846      1.93297053685701      1.55304802676176
  H          -2.81423324803899      3.52759750453892      0.03306885610400
  H          -1.47408935087454      2.67965139219270     -1.86392891671130
  H          -1.25367754596111      0.24772666690734     -2.23026555077560
  H           4.24539469842099     -0.86678805644856     -1.86099155266026
  H           5.30806144206697      1.04472016360142     -0.61562570307405
  H           3.97963365844759      2.05042474381142      1.26907681257728
29
        -758.728442100211
  O           0.28944547460111     -1.14009417430783     -1.97544688389273
  C           0.69645348908725     -1.13115480389656     -0.84059491539112
  N           0.08315098738921     -1.70432444910990      0.23068473125344
  N          -1.21082531352162     -2.20849363054432      0.12305129183238
  C          -2.13404754168846     -1.54941876389929      1.03605539327221
  C          -2.36679818078291     -0.10266967131294      0.67008174462043
  C          -2.33908770003724      0.31309344141866     -0.65690789661846
  C          -2.57901979192104      1.64196962646257     -0.97470993466139
  C          -2.85567032702170      2.56518196354136      0.02428047890614
  C          -2.88251369019985      2.15521404884486      1.34913354455128
  C          -2.63166280244050      0.82829856304070      1.66772020195361
  C           2.01565252876783     -0.46136997051955     -0.46047075645697
  N           2.33101760285002     -0.42302190019526      0.83303225451146
  C           3.47070130642917      0.18198789070176      1.15096388263732
  C           4.29250919000058      0.74287812334137      0.19121362178519
  C           3.86685836671588      0.63747584667970     -1.12278820984535
  N           2.73063462968933      0.03801311221387     -1.45809560169033
  H           0.49047385158784     -1.54369037040660      1.14292466412241
  H          -1.19544315954866     -3.20800205307073      0.27655125897573
  H          -1.79565365737704     -1.60034044111395      2.08215149959160
  H          -3.07285157289462     -2.10642709566801      0.97710061466438
  H          -2.10004388896210     -0.40289747293439     -1.43231305216565
  H          -2.54373426864218      1.95719501784489     -2.00966632232516
  H          -3.04199815260007      3.60120681297363     -0.22795913511393
  H          -3.08920660858001      2.86935265139416      2.13604307324708
  H          -2.63868754367384      0.51285049805005      2.70547962219790
  H           3.72620197983839      0.21498220745596      2.20398338734727
  H           5.21754353527372      1.23557558285317      0.45263872107377
  H           4.45453802996155      1.04677084556261     -1.93716804248252
29
        -758.727913343739
  O           1.03766505453237     -1.92886401985782      1.92641262375110
  C           0.97532493644463     -1.37291964977939      0.85849034717308
  N          -0.08029134633641     -1.41608255594168     -0.00302142303570
  N          -1.26927372032471     -2.01427975913016      0.41557637553344
  C          -2.19253345086008     -1.06214370376009      1.04176654436300
  C          -2.54946173175007      0.11592554965271      0.16812973847021
  C          -3.55615832933534      0.00688549755930     -0.78825541639092
  C          -3.84259680286423      1.06147043174005     -1.64098931925709
  C          -3.12022383791644      2.24407049283924     -1.54950420638249
  C          -2.11674945784748      2.36533112488980     -0.60027166359262
  C          -1.83580756934783      1.30687477603644      0.25348973822261
  C           2.12185255769553     -0.51708808174372      0.32476302443327
  N           1.85924926439717      0.26905187453360     -0.71776066915396
  C           2.85735376004532      1.02870682223357     -1.15749985620790
  C           4.10845463605090      1.00288089843945     -0.56985174513003
  C           4.26851036454763      0.14076389431720      0.50279708010608
  N           3.28076908505767     -0.61976039775884      0.95987266598850
  H          -0.10249085986934     -0.70224081345805     -0.72147713545610
  H          -1.69040009889434     -2.46600228378786     -0.38539131955533
  H          -1.72514733712920     -0.72627612280784      1.96860439350175
  H          -3.08672431630807     -1.62702681128245      1.30961947119902
  H          -4.12707804246054     -0.91292775130722     -0.85907700928807
  H          -4.63302157398922      0.96430502413252     -2.37410376452671
  H          -3.34396401109352      3.06939958216010     -2.21283596636633
  H          -1.55301755977075      3.28602289413746     -0.52082988985724
  H          -1.05437688753284      1.40520383721956      0.99868953907618
  H           2.64161694616093      1.67161261388577     -2.00339158470501
  H           4.91809945018675      1.62104819286712     -0.92928743243411
  H           5.21972816801150      0.05525627977124      1.01657922532136
29
        -758.727910030999
  O           1.10248384616735     -2.68299854642955      0.22253161704451
  C           0.98097004548906     -1.52219806080173      0.52467269956639
  N          -0.13257250373648     -0.95085844994992      1.06505818679909
  N          -1.30528257902498     -1.70327627045051      1.14699221788059
  C          -2.14974668195995     -1.56668019415025     -0.04432902236525
  C          -2.51687139235419     -0.14126425226150     -0.37945320387871
  C          -3.55738284935248      0.49738134432524      0.29117713350804
  C          -3.85430411582215      1.82749542137427      0.03859203070129
  C          -3.10957959489239      2.54051561748936     -0.89203565707097
  C          -2.07289855893181      1.91508109983113     -1.56765575239988
  C          -1.78065025498850      0.58184683221964     -1.31182669197869
  C           2.10985015436052     -0.51274206160493      0.32896849812899
  N           1.79586096790106      0.77739148351250      0.43205699675243
  C           2.78083640837390      1.64805371080548      0.23658602936272
  C           4.06954433828146      1.23971066716077     -0.05302612064511
  C           4.28119796952290     -0.12740844976764     -0.12847039668328
  N           3.30760659065368     -1.01101405457285      0.05663715142871
  H          -0.18803924234653      0.05928864964736      1.01185055880293
  H          -1.79801976347623     -1.42064414766612      1.98374450896988
  H          -3.04507447841533     -2.16239663544012      0.14018176843516
  H          -1.61137361645362     -2.02898945254186     -0.87293995471275
  H          -4.14644480820211     -0.05730635655135      1.01402623030955
  H          -4.67028660691666      2.30797663920410      0.56298622654445
  H          -3.34144850019974      3.57848168975153     -1.09229160027657
  H          -1.49094577946471      2.46391540990455     -2.29695718933641
  H          -0.97222275345867      0.09344441842748     -1.84440642599085
  H           2.52346444683864      2.69819139849720      0.31628470697153
  H           4.86877889022188      1.94909401508167     -0.21061965456129
  H           5.26381506348608     -0.53153272754398     -0.34580508500651
